69
Au_2.22_4.log	Energy: -2718567.9408516
P         -3.41480        0.31702       -0.92615
C         -4.32930        0.26001        0.65203
C         -3.70351        1.95632       -1.66870
C         -4.22914       -0.88870       -2.02688
Au        -1.07308       -0.07352       -0.46656
Br        -1.15799        2.09919        0.92815
C         -1.08036       -1.64991       -1.80069
C         -1.32831       -2.93626       -1.56452
P          1.20080       -0.50936        0.25328
C          1.14005       -1.30557        1.95281
C          0.50078       -0.44516        3.07526
C         -1.00556       -0.64923        3.29108
C         -1.39791       -2.12318        3.37891
C         -0.93309       -2.85120        2.11749
C          0.58655       -2.75225        1.95507
C          2.08105       -1.77165       -0.81976
C          2.31411       -1.35357       -2.29000
C          3.57932       -0.51720       -2.52574
C          4.82201       -1.19759       -1.94293
C          4.62961       -1.50086       -0.45362
C          3.38137       -2.36116       -0.22007
C          2.18472        1.03418        0.41132
C          2.14037        2.06980       -0.55709
C          1.25955        2.07225       -1.78428
C          2.95745        3.19380       -0.35452
C          3.79121        3.31786        0.75567
C          3.83091        2.29625        1.70502
C          3.03299        1.16772        1.52905
H         -5.40196        0.43340        0.47478
H         -3.92114        1.03266        1.31832
H         -4.18784       -0.72686        1.11716
H         -4.78510        2.13156       -1.77764
H         -3.22401        1.99903       -2.65777
H         -3.25601        2.71926       -1.01696
H         -5.29220       -0.62388       -2.13675
H         -4.13704       -1.89848       -1.60470
H         -3.74453       -0.88149       -3.01332
H         -0.87847       -1.29914       -2.82137
H         -1.54070       -3.33733       -0.57017
H         -1.32269       -3.65832       -2.39032
H          2.21577       -1.38406        2.17209
H          0.70685        0.62315        2.91623
H          1.02238       -0.72738        4.00647
H         -1.56748       -0.18005        2.46976
H         -1.30334       -0.10431        4.20091
H         -2.48832       -2.22297        3.50618
H         -0.93577       -2.59315        4.26576
H         -1.43847       -2.39928        1.24481
H         -1.22759       -3.91283        2.13463
H          0.92203       -3.31940        1.07516
H          1.04998       -3.25614        2.82116
H          1.31827       -2.56419       -0.83316
H          1.42706       -0.85028       -2.70220
H          2.40823       -2.29440       -2.86075
H          3.47271        0.47747       -2.06804
H          3.70091       -0.35078       -3.60827
H          5.70908       -0.56221       -2.09331
H          5.01563       -2.14080       -2.48579
H          4.54910       -0.55443        0.10553
H          5.50941       -2.02766       -0.05059
H          3.26715       -2.60432        0.84682
H          3.52872       -3.33311       -0.72483
H          1.03912        1.06886       -2.16753
H          1.73798        2.63103       -2.60112
H          0.30022        2.56384       -1.55605
H          2.93392        3.99611       -1.09642
H          4.41014        4.20987        0.87642
H          4.48042        2.37132        2.57966
H          3.09143        0.38307        2.28211
