54
Au_2.11_4.log	Energy: -3554581.6021739
P          3.79492        0.19887       -1.34121
C          4.08539        1.62692       -2.43587
C          4.83718        0.42061        0.13722
C          4.44508       -1.26156       -2.22068
Au         1.48296        0.04587       -0.67391
Br         1.71018        2.42803        0.21325
C          1.43785       -1.93320       -1.27734
C          1.51103       -2.95986       -0.43209
P         -0.79931       -0.18376        0.12817
C         -1.57401        1.36108        0.69020
C         -1.74891        2.38509       -0.25816
C         -2.36463        3.57949        0.09883
C         -2.80599        3.75951        1.41787
Cl        -3.56883        5.25114        1.86976
C         -2.63770        2.74991        2.37142
C         -2.02107        1.55202        2.00632
C         -1.96762       -0.87539       -1.08125
C         -1.60897       -1.10475       -2.41792
C         -2.54869       -1.57987       -3.33321
C         -3.85894       -1.83015       -2.90988
Cl        -5.02863       -2.42890       -4.04097
C         -4.23795       -1.59123       -1.58082
C         -3.29719       -1.10608       -0.67642
C         -0.64703       -1.29604        1.55749
C          0.21061       -0.89418        2.60111
C          0.43652       -1.73208        3.69061
C         -0.18845       -2.98728        3.73649
Cl         0.09408       -4.03636        5.08864
C         -1.03160       -3.40283        2.69911
C         -1.25537       -2.55896        1.60987
H          5.15690        1.69390       -2.68105
H          3.75213        2.53784       -1.91985
H          3.50483        1.50497       -3.36210
H          5.89302        0.52079       -0.15853
H          4.72109       -0.45092        0.79814
H          4.50002        1.32370        0.66527
H          5.50564       -1.09903       -2.46804
H          3.87692       -1.42343       -3.14807
H          4.34103       -2.15180       -1.58567
H          1.40720       -2.09003       -2.36214
H          1.54792       -2.84047        0.65502
H          1.52418       -3.98972       -0.80978
H         -1.39675        2.25604       -1.28438
H         -2.49998        4.37849       -0.63131
H         -2.99058        2.90428        3.39209
H         -1.90153        0.77072        2.75824
H         -0.59452       -0.90219       -2.76204
H         -2.27399       -1.75527       -4.37429
H         -5.26679       -1.77751       -1.26907
H         -3.60717       -0.89998        0.35110
H          0.70639        0.08065        2.56340
H          1.09368       -1.42400        4.50528
H         -1.50428       -4.38500        2.74687
H         -1.89962       -2.90030        0.79817
