54
Au_2.12_4.log	Energy: -2876222.4355004
P          3.74043       -0.76193       -0.17233
C          4.47011        0.19481       -1.54251
C          4.51382       -0.17292        1.36999
C          4.29855       -2.48244       -0.40911
Au         1.34765       -0.41699       -0.08208
Br         1.85135        2.08707        0.14649
C          0.99065       -2.44529       -0.17173
C          1.15870       -3.27045        0.85994
P         -1.05863       -0.01165       -0.00755
C         -1.59793        0.21470        1.71514
C         -0.74200        0.85213        2.63415
C         -1.16386        1.09132        3.94031
C         -2.44635        0.69346        4.32184
F         -2.84909        0.91655        5.56774
C         -3.31783        0.06921        3.42800
C         -2.89065       -0.16843        2.12245
C         -1.46336        1.49586       -0.93786
C         -0.82765        1.74295       -2.16780
C         -1.15143        2.87176       -2.91504
C         -2.10454        3.76057       -2.41207
F         -2.40889        4.84527       -3.11709
C         -2.73895        3.54467       -1.18884
C         -2.41532        2.40626       -0.45076
C         -2.04666       -1.36489       -0.72213
C         -2.19686       -2.57298       -0.01154
C         -2.91963       -3.63057       -0.55716
C         -3.48309       -3.48106       -1.82664
F         -4.16899       -4.49080       -2.35141
C         -3.34734       -2.29860       -2.55338
C         -2.62969       -1.23987       -1.99629
H          5.56387        0.06739       -1.53986
H          4.20857        1.25380       -1.41205
H          4.06262       -0.16363       -2.49923
H          5.60847       -0.27085        1.30226
H          4.14485       -0.76965        2.21726
H          4.23314        0.87933        1.51832
H          5.39833       -2.50348       -0.46010
H          3.87793       -2.88446       -1.34174
H          3.95145       -3.10748        0.42419
H          0.59747       -2.79314       -1.13486
H          1.53016       -2.94246        1.83663
H          0.91238       -4.33544        0.76633
H          0.25030        1.18853        2.32689
H         -0.51826        1.58529        4.66843
H         -4.31467       -0.21939        3.76585
H         -3.57396       -0.65270        1.42272
H         -0.06333        1.05829       -2.54335
H         -0.67011        3.08823       -3.87005
H         -3.47097        4.27050       -0.83078
H         -2.90522        2.23710        0.50993
H         -1.75316       -2.68843        0.97796
H         -3.05656       -4.57000       -0.01879
H         -3.81217       -2.21895       -3.53754
H         -2.53902       -0.31031       -2.56027
