42
Au_2.49_4.log	Energy: -2350563.3259232
P         -2.50616       -1.20418        0.24219
C         -3.97659       -0.12640        0.26918
C         -2.57854       -2.16234       -1.30779
C         -2.71007       -2.40127        1.60285
Au        -0.50900        0.10658        0.30822
Br        -1.24110        1.26300       -1.86402
C          0.14530       -0.79997        2.03915
C         -0.14913       -0.38668        3.26961
C          1.23196        1.24470        0.31650
N          1.35495        2.55835        0.58261
C          0.23441        3.44378        0.89523
C          2.68360        2.94104        0.47763
C          3.39241        1.82887        0.13702
N          2.47532        0.79020        0.04041
C          2.78305       -0.56444       -0.32378
C          2.15680       -1.12972       -1.44085
C          2.43353       -2.45904       -1.77201
C          3.33590       -3.20335       -1.00430
C          3.96575       -2.62047        0.10092
C          3.68769       -1.29626        0.45070
H         -4.89009       -0.73140        0.16213
H         -3.89495        0.59068       -0.56023
H         -4.01166        0.42447        1.22066
H         -3.52114       -2.72880       -1.35770
H         -1.72805       -2.85881       -1.34760
H         -2.50937       -1.46185       -2.15221
H         -3.66371       -2.93854        1.48566
H         -2.69345       -1.87236        2.56578
H         -1.87834       -3.12029        1.59114
H          0.80723       -1.65495        1.85192
H         -0.79331        0.47460        3.47518
H          0.25518       -0.91095        4.14438
H         -0.46787        3.45327        0.04982
H          0.61639        4.45566        1.07509
H         -0.28130        3.08718        1.79794
H          3.00684        3.96541        0.64217
H          4.44936        1.68454       -0.06747
H          1.47345       -0.52778       -2.04447
H          1.95499       -2.90730       -2.64570
H          3.55586       -4.23914       -1.27245
H          4.67207       -3.20018        0.69922
H          4.15570       -0.83620        1.32366
