35
Au_2.32_4.log	Energy: -2230195.5349489
P          2.56634        0.33603        0.02251
C          3.18465       -0.64565        1.42875
C          3.26698       -0.39946       -1.49149
C          3.30734        1.99572        0.18275
Au         0.17110        0.27596       -0.00861
Br         0.30818       -2.26519       -0.29932
C          0.03679        2.32253        0.22528
C         -0.64209        2.92729        1.19971
C         -1.90320        0.14620       -0.01498
N         -2.67884       -0.38400        0.95258
C         -2.17732       -0.99063        2.18518
C         -4.00952       -0.32834        0.57263
C         -4.04446        0.25703       -0.65753
N         -2.73370        0.54445       -0.99984
C         -2.30018        1.18062       -2.24090
H          4.28521       -0.66722        1.41859
H          2.78340       -1.66532        1.34015
H          2.83463       -0.19962        2.37129
H          4.36548       -0.42469       -1.42255
H          2.96819        0.19925       -2.36459
H          2.86806       -1.41790       -1.60101
H          4.40242        1.90686        0.25208
H          2.91874        2.49085        1.08401
H          3.05292        2.60740       -0.69488
H          0.59035        2.90620       -0.52044
H         -1.21288        2.38313        1.95853
H         -0.64781        4.02130        1.27927
H         -1.51390       -0.28507        2.70430
H         -1.61706       -1.90493        1.94439
H         -3.02627       -1.22895        2.83697
H         -4.81040       -0.70768        1.20144
H         -4.88144        0.48934       -1.31030
H         -3.17686        1.37442       -2.87031
H         -1.61004        0.51657       -2.77974
H         -1.79723        2.13104       -2.01410
