41
Au_2.44_4.log	Energy: -2279567.2128834
P          2.91575        0.18463       -0.12749
C          3.53054        0.00092        1.57970
C          3.53082       -1.25155       -1.06823
C          3.74993        1.64891       -0.82553
Au         0.51988        0.23570       -0.14123
Br         0.52319       -2.10246        0.90650
C          0.44703        2.10893       -0.99983
C          0.60195        3.25831       -0.34501
C         -1.56519        0.20774       -0.12871
N         -2.34301       -0.53398       -0.94103
C         -1.83351       -1.46342       -1.94522
C         -3.68919       -0.37377       -0.60315
C         -4.79443       -1.08315       -1.30888
C         -3.72137        0.51094        0.44343
C         -4.86123        1.07458        1.22072
N         -2.39433        0.85174        0.71402
C         -1.99531        1.77011        1.77128
H          4.62745       -0.09238        1.57808
H          3.07238       -0.89739        2.01739
H          3.23914        0.88006        2.17317
H          4.62812       -1.30418       -0.99795
H          3.23635       -1.15383       -2.12355
H          3.07769       -2.16142       -0.65000
H          4.84112        1.52100       -0.75619
H          3.44395        2.54988       -0.27647
H          3.45919        1.77301       -1.87850
H          0.23045        2.09012       -2.07547
H          0.81110        3.31575        0.72844
H          0.52754        4.21580       -0.87513
H         -0.95947       -1.02388       -2.44287
H         -2.60537       -1.65335       -2.69955
H         -1.53191       -2.40624       -1.46652
H         -4.67690       -2.17725       -1.25047
H         -4.84561       -0.80473       -2.37446
H         -5.75984       -0.82773       -0.85353
H         -5.81532        0.69910        0.82937
H         -4.88572        2.17511        1.16448
H         -4.80409        0.79570        2.28579
H         -2.42907        1.44957        2.72843
H         -2.33449        2.79043        1.54094
H         -0.90412        1.76764        1.86207
