56
Au_2.21_4.log	Energy: -2643001.5215362
P          3.30947        0.78612       -0.47809
C          4.27598        0.72283        1.06764
C          4.04036       -0.42603       -1.62647
C          3.63003        2.43190       -1.19779
Au         0.99044        0.24979       -0.04676
Br         1.85831       -1.98083        0.89570
C          0.41355        1.96958       -1.02921
C          0.26961        2.02906       -2.35068
P         -1.38514       -0.15660        0.41330
C         -1.76933       -0.95912        2.11004
C         -0.76897       -0.45382        3.16570
C         -3.21344       -0.61682        2.52203
C         -1.63833       -2.48660        1.95366
C         -2.25982        1.44765        0.30142
C         -2.12235        2.37945        1.34762
C         -2.69712        3.64767        1.24790
C         -3.40657        4.00886        0.09775
C         -3.52611        3.09856       -0.95560
C         -2.95068        1.82864       -0.86120
C         -2.06645       -1.26543       -0.86322
C         -3.45799       -1.36451       -1.06059
C         -3.97196       -2.28396       -1.97637
C         -3.10930       -3.11496       -2.69969
C         -1.72883       -3.02724       -2.50211
C         -1.20644       -2.11002       -1.58646
H          5.33589        0.92656        0.84920
H          4.16333       -0.27335        1.51643
H          3.89491        1.47987        1.76877
H          5.10825       -0.20303       -1.77564
H          3.51725       -0.37510       -2.59274
H          3.91691       -1.43109       -1.19942
H          4.71579        2.57051       -1.31790
H          3.23136        3.21273       -0.53435
H          3.13013        2.51593       -2.17163
H          0.19133        2.81927       -0.37349
H          0.46297        1.18153       -3.01686
H         -0.07935        2.95377       -2.82634
H         -0.81490        0.63499        3.31346
H          0.26329       -0.73554        2.91652
H         -1.01695       -0.91920        4.13312
H         -3.36598        0.45346        2.71332
H         -3.43866       -1.15969        3.45446
H         -3.94759       -0.94422        1.77138
H         -0.65109       -2.78509        1.57987
H         -2.40934       -2.89897        1.28780
H         -1.77341       -2.94372        2.94714
H         -1.56095        2.12630        2.24750
H         -2.58976        4.35556        2.07297
H         -3.85857        5.00045        0.02106
H         -4.06651        3.37743       -1.86318
H         -3.03073        1.14610       -1.70734
H         -4.14588       -0.72169       -0.50867
H         -5.05216       -2.35176       -2.12445
H         -3.51566       -3.83336       -3.41548
H         -1.05160       -3.68023       -3.05715
H         -0.12796       -2.07997       -1.41864
