31
Au_2.52_4.log	Energy: -2483102.0529518
P          2.82901       -0.16317        0.27534
C          3.05500       -1.50357        1.48453
C          3.50781       -0.70749       -1.32170
C          3.86153        1.22437        0.84370
Au         0.54846        0.30873        0.04876
Br         0.19881       -2.11460       -0.66484
C          0.83021        2.26829        0.62268
C          1.18750        3.24642       -0.20724
N         -1.58328        0.68945       -0.14902
C         -2.45122       -0.19523        0.37451
C         -3.83145       -0.01427        0.25181
Cl        -4.90124       -1.17267        0.95408
C         -4.31847        1.09797       -0.44363
C         -3.39944        1.99616       -0.98565
C         -2.03659        1.76898       -0.81490
H          4.12864       -1.73688        1.56135
H          2.49139       -2.38490        1.14959
H          2.67851       -1.18083        2.46619
H          4.57312       -0.95556       -1.19301
H          3.40604        0.09984       -2.06163
H          2.94519       -1.58748       -1.66248
H          4.89852        0.86664        0.94338
H          3.50099        1.58917        1.81549
H          3.81779        2.04974        0.12114
H          0.59872        2.45433        1.67971
H          1.43142        3.08092       -1.26269
H          1.24554        4.28370        0.14609
H         -2.04591       -1.07358        0.87755
H         -5.39439        1.24695       -0.55350
H         -3.73412        2.87563       -1.53834
H         -1.28882        2.46066       -1.20263
