33
Au_2.2_4.log	Energy: -2328237.5845662
P          2.41105        0.21644       -0.06093
C          2.99894       -0.51592        1.50123
C          3.02537       -0.83489       -1.41718
C          3.24026        1.83094       -0.22895
Au        -0.00000        0.27616       -0.07272
Br         0.00005       -2.27514        0.16803
C         -0.00001        2.33046       -0.25253
C         -0.00006        3.17815        0.77486
P         -2.41107        0.21639       -0.06094
C         -2.99889       -0.51592        1.50128
C         -3.24034        1.83085       -0.22899
C         -3.02541       -0.83499       -1.41713
H          4.09726       -0.59364        1.48732
H          2.54876       -1.51252        1.61189
H          2.68696        0.11728        2.34483
H          4.12239       -0.91147       -1.36028
H          2.73880       -0.39601       -2.38419
H          2.56878       -1.83033       -1.32346
H          4.33150        1.68798       -0.19503
H          2.92430        2.49609        0.58627
H          2.96016        2.29595       -1.18494
H          0.00004        2.68547       -1.29169
H         -0.00012        2.85545        1.82160
H         -0.00007        4.26152        0.60142
H         -2.68685        0.11730        2.34485
H         -2.54873       -1.51252        1.61193
H         -4.09722       -0.59361        1.48744
H         -2.92441        2.49604        0.58620
H         -4.33156        1.68784       -0.19506
H         -2.96026        2.29585       -1.18500
H         -2.56880       -1.83042       -1.32340
H         -2.73890       -0.39613       -2.38417
H         -4.12243       -0.91159       -1.36019
