53
Au_2.35_4.log	Energy: -2378283.5313774
P          2.96762        0.02004       -0.16728
C          3.50948        1.63052        0.49743
C          3.58654       -1.26590        0.96885
C          3.88441       -0.20260       -1.72851
Au         0.57660       -0.04223       -0.28285
Br         0.54374        0.37320        2.26149
C          0.56440       -0.27732       -2.33693
C          0.97918       -1.34743       -3.01014
C         -1.52277       -0.02721       -0.28843
N         -2.35172       -1.09620       -0.13402
C         -2.02048       -2.53433        0.22429
C         -1.89921       -2.61191        1.75333
C         -3.16368       -3.43781       -0.27271
C         -0.72910       -3.00156       -0.45131
C         -3.66493       -0.65202       -0.13320
C         -3.64083        0.69072       -0.29868
N         -2.31229        1.07580       -0.40078
C         -1.96980        2.55590       -0.39754
C         -2.19737        3.05983        1.03770
C         -0.52554        2.84219       -0.81745
C         -2.90228        3.26418       -1.39707
H          4.60481        1.64402        0.60555
H          3.02863        1.78778        1.47284
H          3.19950        2.43005       -0.19158
H          4.67960       -1.18545        1.07149
H          3.32864       -2.25821        0.56991
H          3.10041       -1.13333        1.94570
H          4.96314       -0.11059       -1.52904
H          3.57405        0.55956       -2.45652
H          3.67255       -1.19248       -2.15427
H          0.13878        0.58664       -2.85981
H          1.39322       -2.23785       -2.52666
H          0.91166       -1.37737       -4.10448
H         -2.83462       -2.29176        2.23699
H         -1.08446       -1.97155        2.11977
H         -1.69620       -3.65032        2.05552
H         -4.09952       -3.28495        0.28248
H         -2.87583       -4.48632       -0.11526
H         -3.35495       -3.29347       -1.34691
H          0.16255       -2.50716       -0.03961
H         -0.76220       -2.83559       -1.53544
H         -0.60691       -4.07716       -0.26338
H         -4.51492       -1.31170       -0.01696
H         -4.46526        1.39162       -0.34458
H         -1.53915        2.52732        1.74043
H         -3.24078        2.91175        1.35333
H         -1.97586        4.13613        1.09363
H          0.20260        2.47218       -0.08326
H         -0.39941        3.93301       -0.86114
H         -0.29600        2.44484       -1.81543
H         -3.95803        3.23491       -1.09546
H         -2.81120        2.82570       -2.40256
H         -2.62175        4.32512       -1.45744
