41
Au_2.33_4.log	Energy: -2279560.2507725
P         -2.79317       -0.26816        0.22033
C         -3.42899        1.37603        0.68555
C         -3.48236       -0.66036       -1.42158
C         -3.53295       -1.45916        1.38900
Au        -0.39596       -0.22494        0.16777
Br        -0.53520        1.57316       -1.65273
C         -0.24506       -1.67395        1.62781
C          0.46957       -1.55017        2.74598
C          1.67525       -0.10293        0.08358
N          2.51057       -0.98825       -0.49569
C          2.05021       -2.22329       -1.16093
C          3.18012       -3.07971       -1.70747
C          3.81539       -0.53911       -0.38153
C          3.76823        0.64752        0.28833
N          2.43580        0.89973        0.56900
C          1.88182        2.09733        1.23565
C          2.94440        3.05207        1.75328
H         -4.52921        1.37933        0.64986
H         -3.02291        2.11440       -0.02050
H         -3.09385        1.62607        1.70286
H         -4.58150       -0.60501       -1.39282
H         -3.17431       -1.67411       -1.71706
H         -3.08313        0.06234       -2.14740
H         -4.62839       -1.35029        1.38614
H         -3.14604       -1.27660        2.40175
H         -3.27505       -2.48615        1.09208
H         -0.82031       -2.58627        1.42860
H          1.06516       -0.66251        2.98026
H          0.48172       -2.35438        3.49176
H          1.36622       -1.91925       -1.96850
H          1.46126       -2.78372       -0.41871
H          3.75917       -2.55167       -2.48015
H          2.75033       -3.97834       -2.17315
H          3.86424       -3.41158       -0.91168
H          4.66595       -1.08355       -0.77662
H          4.57079        1.31671        0.57817
H          1.24578        1.74188        2.06164
H          1.22558        2.59323        0.50431
H          3.60731        2.57343        2.49038
H          2.44732        3.89774        2.25015
H          3.55588        3.46460        0.93663
