60
Au_2.47_4.log	Energy: -2545745.9995539
P         -3.16048        0.01470       -0.23108
C         -3.89658        0.44830       -1.84273
C         -3.90537       -1.57113        0.27476
C         -3.74130        1.27750        0.94900
Au        -0.77495       -0.11579       -0.19719
Br        -0.91555       -0.74421        2.29759
C         -0.68887        0.32183       -2.21106
C         -0.27973        1.48350       -2.71306
C          1.30569       -0.27214       -0.12520
N          2.02400       -1.25855       -0.70133
C          1.43240       -2.38571       -1.43005
C          0.66019       -3.35536       -0.51091
C         -0.66570       -3.82322       -1.11896
C         -1.47729       -4.69603       -0.16309
C          3.37741       -1.09092       -0.40323
C          3.46455        0.07153        0.38482
C          4.69517        0.54115        0.85719
C          5.82728       -0.19611        0.51427
C          5.73816       -1.36417       -0.27131
C          4.51348       -1.83274       -0.74324
N          2.15648        0.54168        0.53532
C          1.75305        1.67471        1.38547
C          1.05188        2.77893        0.62689
C         -0.29303        3.07567        0.89178
C         -0.93946        4.10584        0.19892
C         -0.24612        4.84811       -0.76097
C          1.09879        4.56028       -1.02547
C          1.74277        3.53004       -0.33655
H         -4.98945        0.53297       -1.74304
H         -3.65772       -0.32749       -2.58412
H         -3.47519        1.40205       -2.18955
H         -5.00272       -1.48605        0.29144
H         -3.52754       -1.82715        1.27462
H         -3.60654       -2.36068       -0.43010
H         -4.84162        1.29745        0.97074
H         -3.36000        2.26122        0.63978
H         -3.34533        1.03130        1.94447
H         -1.03483       -0.49808       -2.85287
H          0.06510        2.31357       -2.09246
H         -0.27971        1.64418       -3.79846
H          2.24353       -2.88826       -1.97207
H          0.76884       -1.95956       -2.19585
H          0.44974       -2.85054        0.44589
H          1.29083       -4.22393       -0.26062
H         -0.47957       -4.36185       -2.06484
H         -1.25778       -2.92863       -1.39472
H         -0.92219       -5.60632        0.11462
H         -2.42933       -5.01435       -0.61604
H         -1.70491       -4.15078        0.76789
H          4.77518        1.44101        1.46841
H          6.80624        0.13736        0.86453
H          6.64954       -1.91429       -0.51421
H          4.45062       -2.73839       -1.34785
H          2.66853        2.05573        1.85547
H          1.10987        1.27610        2.18214
H         -0.82811        2.50268        1.65362
H         -1.98271        4.34333        0.42281
H         -0.74743        5.65771       -1.29645
H          1.64698        5.14403       -1.76860
H          2.79292        3.30849       -0.54724
