34
Au_2.59_4.log	Energy: -2219371.4101374
P          2.72071        0.22994       -0.07674
C          3.31125       -0.34180        1.54592
C          3.33462       -0.91632       -1.34974
C          3.52782        1.83081       -0.39571
Au         0.37874        0.26076       -0.09142
Br         0.42881       -2.25303        0.35028
C          0.34316        2.28942       -0.44981
C          0.40788        3.21901        0.50139
N         -1.77953        0.23370       -0.09669
C         -2.49018        1.11101        0.63713
C         -3.87774        1.06566        0.69845
C         -4.58439        0.09595       -0.02947
C         -6.08247        0.01127       -0.00397
C         -3.81959       -0.80187       -0.79471
C         -2.43523       -0.71427       -0.80086
H          4.41195       -0.37664        1.53977
H          2.89360       -1.33905        1.74171
H          2.97001        0.35468        2.32566
H          4.43467       -0.94519       -1.30525
H          3.01696       -0.56654       -2.34292
H          2.91390       -1.91376       -1.16332
H          4.61872        1.67941       -0.38785
H          3.24442        2.55756        0.37680
H          3.21626        2.22128       -1.37459
H          0.20667        2.54616       -1.50847
H          0.55138        2.98520        1.56242
H          0.31023        4.28249        0.24929
H         -1.92614        1.87106        1.17874
H         -4.40436        1.79462        1.31745
H         -6.52591        0.74484        0.68284
H         -6.40755       -0.99618        0.30193
H         -6.49282        0.18777       -1.01204
H         -4.30129       -1.58474       -1.38441
H         -1.82435       -1.42495       -1.35880
