31
Au_2.53_4.log	Energy: -2483103.9067465
P          2.94257        0.23417       -0.07865
C          3.53544       -0.34083        1.54160
C          3.55192       -0.90721       -1.35774
C          3.74463        1.83760       -0.39521
Au         0.60157        0.25971       -0.08956
Br         0.65577       -2.25360        0.35021
C          0.56371        2.28914       -0.44596
C          0.62975        3.21788        0.50612
N         -1.56565        0.22676       -0.09592
C         -2.21588       -0.74058       -0.77670
C         -3.60096       -0.83707       -0.78023
C         -4.34192        0.09161       -0.03797
Cl        -6.05901        0.00783       -0.00047
C         -3.66457        1.09005        0.67468
C         -2.27823        1.12552        0.61246
H          4.63630       -0.37146        1.53340
H          3.12203       -1.34024        1.73516
H          3.19313        0.35227        2.32388
H          4.65227       -0.93308       -1.31805
H          3.22919       -0.55503       -2.34845
H          3.13496       -1.90640       -1.17246
H          4.83565        1.68648       -0.39294
H          3.46484        2.56081        0.38188
H          3.42850        2.23161       -1.37116
H          0.42467        2.54654       -1.50420
H          0.77791        2.98364        1.56645
H          0.52921        4.28140        0.25515
H         -1.60303       -1.46621       -1.31300
H         -4.09516       -1.62853       -1.34439
H         -4.20960        1.82762        1.26442
H         -1.71593        1.90007        1.13481
