69
Au_2.41_4.log	Energy: -2619786.5259371
P         -0.07127        3.14086        0.24530
C          1.64762        3.71238        0.45809
C         -0.69305        3.85575       -1.31278
C         -1.03590        3.93348        1.57624
Au        -0.12799        0.74693        0.17943
Br         1.38316        0.90990       -1.89040
C         -1.51022        0.73994        1.71230
C         -1.28508        0.65185        3.02044
C         -0.11360       -1.34960        0.12206
N         -1.20764       -2.10707        0.00020
C         -2.54877       -1.63277       -0.18021
C         -2.92100       -1.05194       -1.40823
C         -1.96611       -0.95395       -2.57325
C         -4.22688       -0.55465       -1.52566
C         -5.15423       -0.64314       -0.47990
C         -6.56463       -0.13648       -0.64503
C         -4.75098       -1.25694        0.71613
C         -3.45940       -1.76385        0.88929
C         -3.05986       -2.42042        2.18644
C         -0.85977       -3.53896       -0.12324
C          0.62057       -3.54668        0.27851
N          0.97816       -2.11121        0.20927
C          2.34578       -1.68245        0.30077
C          3.17835       -1.87127       -0.82498
C          2.65773       -2.47908       -2.10299
C          4.50867       -1.46128       -0.73198
C          5.02987       -0.87543        0.43227
C          6.47490       -0.44975        0.48659
C          4.17559       -0.70840        1.52533
C          2.83135       -1.10898        1.48700
C          1.96444       -0.88490        2.70022
H          1.68088        4.81270        0.46415
H          2.25175        3.31399       -0.36894
H          2.04387        3.32677        1.40907
H         -0.59543        4.95199       -1.28788
H         -1.75143        3.58423       -1.44020
H         -0.11103        3.43778       -2.14570
H         -0.92104        5.02640        1.50971
H         -0.68399        3.57865        2.55438
H         -2.09754        3.66760        1.47560
H         -2.52897        0.82465        1.31503
H         -0.29006        0.55601        3.46061
H         -2.12814        0.66955        3.72220
H         -1.23934       -1.77890       -2.58720
H         -1.37458       -0.02449       -2.54865
H         -2.51478       -0.96870       -3.52553
H         -4.53126       -0.09868       -2.47203
H         -6.63404        0.63100       -1.42989
H         -6.95415        0.28902        0.29245
H         -7.23964       -0.96143       -0.93094
H         -5.46459       -1.33959        1.54082
H         -3.72845       -2.11727        3.00436
H         -2.03121       -2.15843        2.47340
H         -3.12021       -3.52011        2.11327
H         -1.02606       -3.86260       -1.16405
H         -1.49233       -4.15018        0.53303
H          1.25203       -4.13778       -0.39586
H          0.78531       -3.90395        1.30850
H          1.61613       -2.18604       -2.29602
H          2.70806       -3.58173       -2.07661
H          3.25850       -2.15041       -2.96211
H          5.15965       -1.58764       -1.60165
H          6.71766        0.23012       -0.34615
H          7.14390       -1.32134        0.39371
H          6.71754        0.06255        1.42868
H          4.56337       -0.26026        2.44475
H          2.50530       -1.14397        3.62246
H          1.03131       -1.46320        2.67569
H          1.68714        0.17975        2.78041
