57
Au_2.25_4.log	Energy: -2714006.7770940
P         -3.60059       -0.37010       -0.38618
C         -4.34836        0.08411        1.21293
C         -4.27720        0.76012       -1.64656
C         -4.23740       -2.02959       -0.79969
Au        -1.19929       -0.20082       -0.23602
Br        -1.54677        2.28851        0.21287
C         -1.04060       -2.24983       -0.48918
C         -0.84678       -3.10843        0.50974
P          1.21893       -0.06821        0.05166
C          1.82686        1.63011        0.29351
C          2.30466        2.10665        1.52255
C          2.77226        3.41968        1.62160
C          2.76521        4.25654        0.50228
C          2.28852        3.78091       -0.72481
C          1.81646        2.47372       -0.83076
C          1.50030       -1.03767        1.56820
C          2.26032       -2.21637        1.56781
C          2.35442       -2.98292        2.73296
C          1.68520       -2.58567        3.89436
C          0.91103       -1.41908        3.89260
C          0.81059       -0.64845        2.73274
C          2.17870       -0.74707       -1.34508
C          3.60074       -0.74349       -1.33850
C          4.43877       -0.15354       -0.22967
C          4.25344       -1.27400       -2.46288
C          3.55319       -1.76202       -3.56757
C          2.15819       -1.72575       -3.57953
C          1.48057       -1.22106       -2.47070
H         -5.44626        0.04258        1.14070
H         -4.01988        1.10035        1.47216
H         -4.00371       -0.61689        1.98731
H         -5.37637        0.69309       -1.65304
H         -3.88691        0.48108       -2.63637
H         -3.95592        1.78358       -1.40912
H         -5.33796       -2.00607       -0.82460
H         -3.89369       -2.75475       -0.04965
H         -3.85800       -2.33896       -1.78416
H         -1.18552       -2.59921       -1.51845
H         -0.70156       -2.79757        1.54853
H         -0.81018       -4.18711        0.31360
H          2.33625        1.45912        2.39947
H          3.14929        3.78654        2.57895
H          3.13241        5.28215        0.58478
H          2.27962        4.43292       -1.60105
H          1.44054        2.11029       -1.79029
H          2.76937       -2.54396        0.65936
H          2.95059       -3.89827        2.72974
H          1.76173       -3.18857        4.80221
H          0.38139       -1.10974        4.79658
H          0.18875        0.25172        2.73126
H          4.05251       -0.37234        0.77421
H          4.47612        0.94398       -0.32322
H          5.47027       -0.52908       -0.28200
H          5.34620       -1.29235       -2.47214
H          4.10136       -2.16150       -4.42408
H          1.59856       -2.08676       -4.44494
H          0.39198       -1.18400       -2.49083
