66
Au_2.10_4.log	Energy: -2905021.5516757
P          3.44662       -2.03001       -0.22776
C          4.46039       -1.29580       -1.55575
C          4.37666       -1.81743        1.32775
C          3.42223       -3.82514       -0.56032
Au         1.29236       -0.91864       -0.09984
Br         2.60502        1.25318        0.29386
C          0.27385       -2.69399       -0.33593
C          0.16539       -3.61853        0.61667
P         -0.84308        0.25622       -0.01292
C         -0.68242        1.82800       -0.89760
C          0.00138        1.87548       -2.12154
C          0.11436        3.06581       -2.83716
C         -0.45201        4.24634       -2.31783
O         -0.39413        5.44609       -2.91653
C          0.27762        5.59025       -4.15659
C         -1.12836        4.20393       -1.08201
C         -1.24181        3.01230       -0.38046
C         -2.20180       -0.67128       -0.78008
C         -2.77358       -1.76811       -0.11108
C         -3.79460       -2.51708       -0.69365
C         -4.25860       -2.18530       -1.98174
O         -5.23066       -2.83955       -2.63474
C         -5.87876       -3.94447       -2.02588
C         -3.68459       -1.09096       -2.65965
C         -2.67530       -0.34489       -2.06804
C         -1.30331        0.58947        1.70771
C         -0.31472        0.85251        2.67055
C         -0.65902        1.19276        3.97848
C         -2.01463        1.28082        4.34779
O         -2.45326        1.59886        5.57418
C         -1.52688        1.89429        6.60740
C         -3.01052        1.02462        3.38221
C         -2.66157        0.68569        2.08384
H          5.45844       -1.76081       -1.56519
H          4.54340       -0.21509       -1.37547
H          3.96923       -1.46346       -2.52561
H          5.37544       -2.27178        1.23574
H          3.82916       -2.30043        2.15064
H          4.46377       -0.74170        1.53531
H          4.45551       -4.20130       -0.61901
H          2.90263       -4.01911       -1.50936
H          2.88094       -4.34661        0.24033
H         -0.23206       -2.79865       -1.30326
H          0.63824       -3.52451        1.60009
H         -0.43113       -4.52364        0.44817
H          0.46787        0.97309       -2.52603
H          0.65519        3.07035       -3.78271
H          0.18846        6.64790       -4.43479
H         -0.18687        4.97006       -4.94331
H          1.34682        5.32856       -4.07048
H         -1.55212        5.13209       -0.69474
H         -1.76316        3.00408        0.57883
H         -2.42417       -2.04372        0.88536
H         -4.22200       -3.35273       -0.14027
H         -6.62665       -4.29867       -2.74630
H         -6.38809       -3.65020       -1.09169
H         -5.16843       -4.76211       -1.81126
H         -4.06481       -0.84262       -3.65204
H         -2.26247        0.50859       -2.60831
H          0.74237        0.81922        2.39921
H          0.13395        1.39274        4.69830
H         -2.12330        2.13018        7.49757
H         -0.89979        2.76570        6.35054
H         -0.87671        1.02944        6.82679
H         -4.05587        1.10469        3.68565
H         -3.45145        0.49936        1.35383
