33
Au_2.69_4.log	Energy: -2148353.2620147
P         -2.20226        0.20992       -0.09146
C         -2.77369       -0.85610       -1.45139
C         -2.81343       -0.46887        1.48122
C         -3.03347        1.81334       -0.32583
Au         0.15213        0.27495       -0.06671
Br         0.07536       -2.27375        0.20562
C          0.09017        2.32879       -0.18025
C         -0.00183        3.11843        0.88770
N          2.40820        0.26158       -0.10090
C          2.87707       -0.28805        1.20154
C          2.84117       -0.62627       -1.21703
C          3.00815        1.60529       -0.30312
H         -3.87466       -0.88653       -1.43970
H         -2.35761       -1.86363       -1.31929
H         -2.42965       -0.44245       -2.41070
H         -3.91402       -0.50326        1.45530
H         -2.48623        0.17631        2.30970
H         -2.39900       -1.47676        1.61846
H         -4.11927        1.63370       -0.37326
H         -2.69720        2.28188       -1.26126
H         -2.80005        2.48684        0.50859
H          0.17193        2.73143       -1.19842
H         -0.09610        2.73689        1.91042
H          0.02693        4.20996        0.77844
H          2.46475       -1.29274        1.34996
H          2.54372        0.36891        2.01661
H          3.97903       -0.33594        1.20741
H          2.43764       -1.63411       -1.07144
H          3.94283       -0.66939       -1.24554
H          2.47468       -0.22091       -2.17003
H          2.72151        2.27496        0.51430
H          2.65996        2.03259       -1.25161
H          4.10649        1.51325       -0.33322
