29
Au_2.42_4.log	Energy: -2757669.1043580
P          3.12462        0.31446       -0.04510
C          3.73862       -0.38641        1.52103
C          3.81005       -0.69372       -1.39944
C          3.87163        1.97031       -0.20107
Au         0.73594        0.26988       -0.06889
Br         0.86010       -2.28625        0.12842
C          0.66449        2.32467       -0.23475
C          0.35157        3.15122        0.76469
C         -1.35486        0.19165       -0.05604
N         -2.23670        1.20844       -0.07228
H         -1.95748        2.18751       -0.08841
C         -3.54008        0.74337       -0.04799
Cl        -4.89281        1.76835       -0.05613
C         -3.45139       -0.62921       -0.01747
Cl        -4.66523       -1.81302        0.02495
N         -2.10148       -0.92475       -0.02391
H          4.83958       -0.39968        1.51481
H          3.34646       -1.40758        1.62759
H          3.38355        0.22596        2.36291
H          4.90948       -0.69290       -1.33988
H          3.49471       -0.27723       -2.36735
H          3.42504       -1.71876       -1.30715
H          4.96811        1.87997       -0.15958
H          3.52089        2.61504        0.61639
H          3.58089        2.42557       -1.15864
H          0.91697        2.70177       -1.23432
H          0.11072        2.80436        1.77540
H          0.34216        4.23706        0.60598
H         -1.67929       -1.85763        0.00581
