35
Au_2.62_4.log	Energy: -2266588.1289892
P         -2.95272        0.13576       -0.11245
C         -3.49924       -1.04045       -1.38918
C         -3.54747       -0.45278        1.50313
C         -3.82633        1.69741       -0.45166
Au        -0.61359        0.26717       -0.08872
Br        -0.57016       -2.24558        0.37436
C         -0.66038        2.28869       -0.48034
C         -0.79527        3.23236        0.44928
N          1.53858        0.33573       -0.04624
C          2.25641       -0.60598       -0.69199
C          3.64206       -0.64901       -0.65504
C          4.33578        0.31814        0.10066
O          5.65164        0.38796        0.23189
C          6.49750       -0.56541       -0.41267
C          3.57365        1.29590        0.77684
C          2.19836        1.27394        0.67439
H         -4.59777       -1.11364       -1.36276
H         -3.04211       -2.01924       -1.19073
H         -3.17945       -0.68279       -2.37887
H         -4.64515       -0.53752        1.47699
H         -3.25296        0.26333        2.28416
H         -3.08899       -1.42866        1.71420
H         -4.90936        1.49729       -0.45438
H         -3.52180        2.09502       -1.42978
H         -3.58472        2.44147        0.31855
H         -0.50466        2.53109       -1.53971
H         -0.95779        3.01254        1.51048
H         -0.73915        4.29411        0.17808
H          1.69451       -1.36364       -1.23969
H          4.15603       -1.43729       -1.20277
H          7.52382       -0.28932       -0.14403
H          6.38014       -0.52020       -1.50790
H          6.28645       -1.58620       -0.05392
H          4.08054        2.05710        1.37078
H          1.58935        2.02862        1.17220
