45
Au_2.17_4.log	Energy: -2426961.7761078
P         -2.82900       -0.02459       -0.09189
C         -3.34696       -1.36094       -1.21905
C         -3.34706       -0.50559        1.58863
C         -3.82331        1.43715       -0.54073
Au        -0.42717        0.26797       -0.16084
Br        -0.22965       -2.19460        0.52397
C         -0.64315        2.24171       -0.72017
C         -0.81332        3.26188        0.11884
P          1.97744        0.51658       -0.19586
C          2.63467        0.73800        1.53043
C          1.83734        1.82103        2.27194
C          2.68361       -0.57305        2.32429
C          2.79552       -0.94969       -0.98616
C          2.20875       -1.21323       -2.37916
C          4.32503       -0.81620       -1.00817
C          2.52566        1.99331       -1.12294
H         -4.43142       -1.52694       -1.12509
H         -2.79809       -2.27568       -0.95573
H         -3.10776       -1.08199       -2.25582
H         -4.43193       -0.69289        1.60740
H         -3.10282        0.30311        2.29310
H         -2.79884       -1.41349        1.87718
H         -4.89331        1.18422       -0.48083
H         -3.57680        1.75588       -1.56354
H         -3.59726        2.26570        0.14385
H         -0.60850        2.39445       -1.80685
H         -0.84548        3.14589        1.20668
H         -0.92771        4.28334       -0.26482
H          3.66462        1.10345        1.36682
H          0.81357        1.47331        2.48717
H          1.76907        2.76498        1.71122
H          2.32181        2.03890        3.23596
H          1.68062       -1.00682        2.45131
H          3.09878       -0.37015        3.32387
H          3.32215       -1.33205        1.85018
H          2.50521       -1.78384       -0.32804
H          2.41364       -0.38643       -3.07838
H          1.12277       -1.38687       -2.33793
H          2.66900       -2.11945       -2.80242
H          4.65911       -0.01705       -1.68825
H          4.76112       -1.75813       -1.37637
H          4.75310       -0.62629       -0.01222
H          2.09053        2.89572       -0.67561
H          2.18873        1.92475       -2.16680
H          3.62309        2.05986       -1.09900
