31
Au_2.54_4.log	Energy: -2256986.1324202
P          2.54948       -0.37013        0.03761
C          3.23999        0.49471       -1.40447
C          3.18497        0.41953        1.54749
C          3.20771       -2.06628        0.01380
Au         0.22364       -0.22030       -0.01954
Br         0.42271        2.31885        0.12217
C          0.05930       -2.26780       -0.23746
C         -0.29326       -2.83531       -1.38758
N         -1.93933       -0.02881       -0.08783
C         -2.70332       -0.69309        0.77879
F         -2.06509       -1.42618        1.67400
C         -4.09315       -0.63436        0.78456
C         -4.70530        0.17158       -0.17281
C         -3.91352        0.88630       -1.08194
C         -2.53325        0.76868       -1.00638
H          4.33953        0.45379       -1.35921
H          2.89233        1.53703       -1.38697
H          2.89046        0.00712       -2.32618
H          4.28470        0.35856        1.54853
H          2.78638       -0.10196        2.42996
H          2.85509        1.46714        1.56587
H          4.30760       -2.01511        0.03838
H          2.87545       -2.58537       -0.89511
H          2.84997       -2.62197        0.89200
H          0.24451       -2.84589        0.67551
H         -0.48408       -2.26928       -2.30561
H         -0.41763       -3.92373       -1.45368
H         -4.64930       -1.20411        1.52981
H         -5.79445        0.24904       -0.20483
H         -4.35887        1.53659       -1.83591
H         -1.86584        1.32728       -1.66419
