41
Au_2.29_4.log	Energy: -2480337.3561459
P         -3.17965        0.20238       -0.05601
C         -3.78823       -0.87635       -1.39287
C         -3.74296       -0.52003        1.51963
C         -4.01704        1.81024       -0.23938
Au        -0.77537        0.28098       -0.07866
Br        -0.68325       -2.27354        0.17148
C         -0.76495        2.33761       -0.24638
C         -0.64126        3.16720        0.78871
P          1.58325        0.23141       -0.07332
N          2.18711       -0.37308        1.38270
C          3.66711       -0.54058        1.31447
C          4.26954        0.02630       -0.00754
C          5.79366       -0.11064        0.03425
C          3.71518       -0.75530       -1.23550
N          2.22915       -0.69892       -1.31327
N          2.41693        1.65658       -0.28903
C          3.88503        1.52076       -0.14733
H         -4.88345       -0.97001       -1.32842
H         -3.31557       -1.86344       -1.28788
H         -3.51313       -0.44809       -2.36795
H         -4.83949       -0.61987        1.51731
H         -3.43470        0.12814        2.35317
H         -3.27290       -1.50692        1.63758
H         -5.10753        1.66871       -0.18513
H         -3.75352        2.25662       -1.20911
H         -3.68746        2.49018        0.55844
H         -0.86032        2.69750       -1.27864
H         -0.53469        2.82558        1.82382
H         -0.64707        4.25311        0.63079
H          1.68424       -1.18434        1.74073
H          3.92633       -1.61028        1.38682
H          4.13554       -0.02790        2.17131
H          6.09198       -1.16308        0.15848
H          6.21873        0.46311        0.87220
H          6.24816        0.26180       -0.89659
H          4.03678       -1.80686       -1.16468
H          4.15213       -0.33487       -2.15677
H          1.76796       -1.60084       -1.42032
H          1.98942        2.49460        0.09360
H          4.23865        2.06820        0.74299
H          4.38516        1.95162       -1.03075
