40
Au_2.65_4.log	Energy: -2268743.8895521
P         -2.82627        0.20825        0.10376
C         -3.43695       -0.36933       -1.50992
C         -3.40457       -0.95569        1.37838
C         -3.64609        1.79758        0.44501
Au        -0.48690        0.25317        0.07859
Br        -0.48618       -2.25683       -0.38782
C         -0.39598        2.28025        0.44411
C         -0.60844        3.23147       -0.46231
N          1.66839        0.21316        0.06453
C          2.33342        0.38996       -1.10410
C          1.53767        0.61177       -2.35777
C          3.72703        0.34206       -1.12707
C          4.45886        0.10195        0.04196
C          5.95791        0.01571        0.02919
C          3.72829       -0.09099        1.22201
C          2.33574       -0.03921        1.21910
C          1.54228       -0.29114        2.47003
H         -4.53631       -0.42728       -1.48848
H         -3.00208       -1.35788       -1.71415
H         -3.12102        0.33486       -2.29344
H         -4.50419       -1.00753        1.35121
H         -3.07850       -0.60679        2.36916
H         -2.96692       -1.94360        1.17894
H         -4.73569        1.63816        0.45247
H         -3.38131        2.53342       -0.32565
H         -3.32091        2.18383        1.42109
H         -0.06941        2.52118        1.46390
H         -0.93116        3.02522       -1.48850
H         -0.45833        4.28787       -0.20706
H          0.88085       -0.25349       -2.54725
H          2.19664        0.74004       -3.22574
H          0.91041        1.51262       -2.26832
H          4.24187        0.49161       -2.07772
H          6.39123        0.56661       -0.81757
H          6.26900       -1.03910       -0.06593
H          6.39192        0.40053        0.96376
H          4.24505       -0.29129        2.16235
H          2.20428       -0.46272        3.32822
H          0.90674       -1.18287        2.34043
H          0.88961        0.56303        2.71313
