58
Au_2.26_4.log	Energy: -2761223.5472698
P          3.74370        0.54394        0.04054
C          4.38161        0.08290        1.68532
C          4.48842       -0.60478       -1.16455
C          4.43267        2.18934       -0.34327
Au         1.33621        0.34713       -0.00399
Br         1.64275       -2.14317        0.52893
C          1.08652        2.36454       -0.34417
C          1.27968        3.30460        0.57891
P         -1.06812        0.00784       -0.14548
C         -1.94783        1.47002       -0.79383
C         -2.39842        1.54137       -2.12032
C         -3.04855        2.69382       -2.57310
C         -3.25639        3.77200       -1.70848
C         -2.81091        3.69950       -0.38337
C         -2.15444        2.55660        0.07322
C         -1.32203       -1.38520       -1.28627
C         -2.11022       -2.49056       -0.93764
C         -2.24539       -3.55363       -1.83412
C         -1.59830       -3.52039       -3.07260
C         -0.80157       -2.42297       -3.41758
C         -0.65552       -1.36171       -2.52425
C         -1.77451       -0.34279        1.48946
C         -3.18672       -0.40318        1.62306
O         -3.89150       -0.28224        0.48101
C         -5.30831       -0.20175        0.50733
C         -3.75582       -0.59654        2.88967
C         -2.92937       -0.74780        4.00635
C         -1.53829       -0.71018        3.88239
C         -0.96725       -0.50726        2.62564
H          5.48239        0.10674        1.68458
H          4.02093       -0.92800        1.92281
H          4.00028        0.78923        2.43750
H          5.58617       -0.56280       -1.08968
H          4.17917       -0.32021       -2.18103
H          4.12753       -1.62005       -0.94908
H          5.53257        2.13884       -0.32931
H          4.08372        2.92376        0.39466
H          4.08903        2.51009       -1.33690
H          0.70827        2.60876       -1.34429
H          1.62882        3.08836        1.59425
H          1.07169        4.35713        0.35078
H         -2.26703        0.69774       -2.79933
H         -3.40248        2.74207       -3.60558
H         -3.76908        4.66847       -2.06509
H         -2.97537        4.53798        0.29749
H         -1.80801        2.50792        1.10785
H         -2.61080       -2.53084        0.02974
H         -2.85687       -4.41594       -1.55876
H         -1.70609       -4.35621       -3.76780
H         -0.28400       -2.39993       -4.37922
H         -0.01055       -0.51879       -2.78932
H         -5.62194       -0.03921       -0.53131
H         -5.64848        0.64418        1.12800
H         -5.75775       -1.13726        0.88136
H         -4.83812       -0.64006        3.00861
H         -3.38585       -0.90346        4.98687
H         -0.89982       -0.84073        4.75777
H          0.11871       -0.49407        2.52585
