35
Au_2.60_4.log	Energy: -2266589.3861918
P         -2.65115        0.28429        0.05205
C         -3.48355       -0.92598       -1.02105
C         -3.02036       -0.14214        1.78138
C         -3.42607        1.89949       -0.27380
Au        -0.34301        0.22269       -0.27069
Br        -0.36731       -2.25654        0.33421
C         -0.29602        2.22888       -0.75145
C          0.29496        3.13739        0.02085
N          1.78425        0.09558       -0.55103
C          2.58045        0.28343        0.51902
O          1.91958        0.63245        1.62361
C          2.60797        0.73335        2.87227
C          3.97095        0.11428        0.42061
C          4.51141       -0.24984       -0.80897
C          3.67349       -0.43922       -1.91484
C          2.31029       -0.25697       -1.74045
H         -4.56573       -0.90701       -0.81796
H         -3.06880       -1.92229       -0.81420
H         -3.30232       -0.66904       -2.07491
H         -4.11069       -0.13431        1.93522
H         -2.54774        0.59334        2.44847
H         -2.60782       -1.13962        1.98834
H         -4.50221        1.82894       -0.05101
H         -3.29122        2.17667       -1.32882
H         -2.96192        2.66982        0.35690
H         -0.77218        2.49252       -1.70405
H          0.77652        2.88108        0.96928
H          0.32812        4.19076       -0.28458
H          3.35501        1.54298        2.84720
H          3.09160       -0.22209        3.13009
H          1.84088        0.96724        3.61949
H          4.61182        0.26432        1.28791
H          5.59101       -0.38715       -0.90447
H          4.06588       -0.72775       -2.89031
H          1.60331       -0.40125       -2.55956
