39
Au_2.63_4.log	Energy: -2278800.7628719
P          3.17017        0.22099       -0.07333
C          3.75311       -0.26949        1.57940
C          3.80146       -0.98849       -1.27884
C          3.98955        1.80033       -0.46650
Au         0.82570        0.25822       -0.10783
Br         0.87959       -2.23605        0.45151
C          0.79368        2.26589       -0.56316
C          0.89470        3.24238        0.33645
N         -1.31325        0.23911       -0.12479
C         -2.04123        1.16053        0.54683
C         -3.41748        1.12841        0.61686
C         -4.14727        0.09772       -0.04678
N         -5.49664        0.02545       -0.00306
C         -6.19813       -1.05073       -0.69707
C         -6.26232        1.01552        0.74811
C         -3.35619       -0.85242       -0.75815
C         -1.98190       -0.75184       -0.76258
H          4.85344       -0.31205        1.58036
H          3.32756       -1.25270        1.82356
H          3.41300        0.46775        2.32130
H          4.90104       -1.01206       -1.22270
H          3.49200       -0.69265       -2.29193
H          3.38116       -1.97591       -1.04452
H          5.07977        1.64719       -0.43913
H          3.70016        2.56812        0.26288
H          3.68908        2.13956       -1.46767
H          0.62314        2.46978       -1.62823
H          1.06818        3.06035        1.40303
H          0.79816        4.29259        0.03367
H         -1.48472        1.95808        1.04004
H         -3.91725        1.90777        1.18799
H         -6.00464       -1.02462       -1.78252
H         -7.27736       -0.93880       -0.54384
H         -5.90069       -2.04064       -0.31233
H         -5.99343        1.00786        1.81783
H         -7.33077        0.78625        0.66707
H         -6.10285        2.03353        0.35453
H         -3.80598       -1.68163       -1.29994
H         -1.37638       -1.49931       -1.27649
