60
Au_2.24_4.log	Energy: -2691607.3868771
P         -3.59816       -0.40792        0.41925
C         -4.38759        0.44435       -0.98514
C         -4.03977       -2.17281        0.30270
C         -4.40572        0.22396        1.92901
Au        -1.20297       -0.09243        0.32316
Br        -1.26498       -1.32546       -1.91752
C         -1.28377        1.05401        2.04101
C         -1.26595        2.38635        2.02623
P          1.17564        0.36789        0.19384
C          2.11620       -0.76518       -0.87116
C          3.15790       -0.27194       -1.67565
C          3.95346       -1.15964       -2.40386
C          3.71330       -2.53541       -2.33686
C          2.66703       -3.02678       -1.54832
C          1.86566       -2.14605       -0.82207
C          1.22526        2.01017       -0.59654
C          1.60430        3.18063        0.08163
C          1.55093        4.41495       -0.57367
C          1.11517        4.49095       -1.89926
C          0.72667        3.32814       -2.57532
C          0.77633        2.09238       -1.93010
C          1.97063        0.50476        1.87036
C          1.63796       -0.66160        2.83130
C          2.55939       -1.88108        2.70593
C          4.03403       -1.47855        2.79928
C          4.38188       -0.44477        1.72427
C          3.49111        0.80192        1.82360
H         -5.47362        0.26312       -0.97482
H         -3.94403        0.06048       -1.91467
H         -4.19352        1.52454       -0.91113
H         -5.13523       -2.28398        0.28966
H         -3.62649       -2.71257        1.16743
H         -3.60269       -2.58147       -0.61876
H         -5.49126        0.04997        1.86912
H         -4.20450        1.29903        2.03147
H         -4.00328       -0.29342        2.81198
H         -1.38457        0.49087        2.97662
H         -1.15876        2.97350        1.10811
H         -1.34725        2.95419        2.96164
H          3.35593        0.79998       -1.73258
H          4.76388       -0.77280       -3.02575
H          4.33677       -3.22681       -2.90855
H          2.46621       -4.09957       -1.50826
H          1.03527       -2.53530       -0.23107
H          1.94797        3.14758        1.11609
H          1.85553        5.32003       -0.04322
H          1.07734        5.45752       -2.40711
H          0.38213        3.38325       -3.61049
H          0.46181        1.18844       -2.45869
H          1.44496        1.39220        2.25470
H          0.58256       -0.96054        2.72574
H          1.73650       -0.25617        3.85365
H          2.38564       -2.39382        1.74651
H          2.30276       -2.60498        3.49598
H          4.67917       -2.36544        2.69748
H          4.23653       -1.05580        3.80049
H          4.27990       -0.90687        0.72999
H          5.43492       -0.13324        1.81349
H          3.73010        1.50949        1.01367
H          3.72954        1.32971        2.76439
