31
Au_2.50_4.log	Energy: -2194685.5155508
P          2.48499        0.22978       -0.07771
C          3.07433       -0.33992        1.54580
C          3.09552       -0.91837       -1.35027
C          3.29043        1.83052       -0.39980
Au         0.14369        0.26017       -0.09100
Br         0.19022       -2.25211        0.35279
C          0.10874        2.28918       -0.44959
C          0.16973        3.21811        0.50254
N         -2.02188        0.23136       -0.09693
C         -2.66954       -0.71590       -0.80609
C         -4.05848       -0.80505       -0.80526
C         -4.79684        0.09757       -0.03660
C         -4.11642        1.06940        0.70119
C         -2.72691        1.11150        0.64057
H          4.17507       -0.37452        1.53952
H          2.65699       -1.33706        1.74282
H          2.73315        0.35764        2.32459
H          4.19572       -0.94626       -1.30809
H          2.77556       -0.57027       -2.34331
H          2.67609       -1.91586       -1.16131
H          4.38132        1.67868       -0.39380
H          3.00875        2.55799        0.37263
H          2.97733        2.21980       -1.37865
H         -0.02384        2.54640       -1.50867
H          0.31092        2.98393        1.56384
H          0.07157        4.28166        0.25087
H         -2.05368       -1.42358       -1.36248
H         -4.54479       -1.58268       -1.39655
H         -5.88774        0.04362       -0.01136
H         -4.64925        1.79434        1.31878
H         -2.15728        1.86762        1.18172
