31
Au_2.51_4.log	Energy: -2483104.0013687
P          2.61351       -0.34545        0.05032
C          3.38194        0.64117       -1.26900
C          3.15327        0.32377        1.65337
C          3.28480       -2.03208       -0.07041
Au         0.29621       -0.19824       -0.12124
Br         0.45343        2.31973        0.23438
C          0.13942       -2.21941       -0.51093
C         -0.06014       -2.70067       -1.73498
N         -1.86175       -0.00138       -0.28995
C         -2.69945       -0.45210        0.65599
Cl        -2.01864       -1.21938        2.05045
C         -4.08522       -0.30576        0.55517
C         -4.60333        0.33478       -0.56850
C         -3.72896        0.81486       -1.54926
C         -2.36449        0.63187       -1.37144
H          4.47668        0.61204       -1.15310
H          3.01382        1.67367       -1.18929
H          3.10403        0.22710       -2.24912
H          4.25149        0.26639        1.71416
H          2.70797       -0.26528        2.46841
H          2.81467        1.36584        1.73289
H          4.38039       -1.98345        0.03095
H          3.01449       -2.47488       -1.03825
H          2.87114       -2.65756        0.73311
H          0.17982       -2.86123        0.37724
H         -0.10493       -2.07055       -2.62991
H         -0.20036       -3.77758       -1.89304
H         -4.72534       -0.68552        1.35168
H         -5.68303        0.46410       -0.67278
H         -4.09412        1.33196       -2.43757
H         -1.63795        1.00812       -2.09355
