35
Au_2.61_4.log	Energy: -2266582.4858467
P         -2.71817        0.69206        0.00076
C         -3.69702       -0.42646       -1.04882
C         -3.27195        0.49280        1.72243
C         -3.16750        2.38521       -0.49668
Au        -0.44446        0.15597       -0.17835
Br        -1.03235       -2.18465        0.64769
C          0.02452        2.05529       -0.82557
C          0.23339        3.09027       -0.01365
N          1.63886       -0.40197       -0.36449
C          2.60419        0.39040        0.14760
C          3.95854        0.03318        0.07219
O          4.96350        0.76421        0.56271
C          4.69593        1.99811        1.21586
C          4.29263       -1.17594       -0.56826
C          3.28080       -1.96825       -1.08973
C          1.95029       -1.55970       -0.96932
H         -4.76447       -0.18009       -0.93597
H         -3.50447       -1.46242       -0.73893
H         -3.39998       -0.29908       -2.10008
H         -4.34552        0.73056        1.78486
H         -2.70680        1.17618        2.37303
H         -3.08765       -0.54378        2.03607
H         -4.25914        2.49631       -0.40136
H         -2.86636        2.56573       -1.53789
H         -2.65981        3.11551        0.14656
H          0.15068        2.13287       -1.91340
H          0.10525        3.03547        1.07342
H          0.55295        4.06000       -0.41576
H          2.27927        1.32170        0.60588
H          5.66890        2.40060        1.52217
H          4.06733        1.84910        2.11111
H          4.20563        2.71447        0.53372
H          5.34508       -1.45889       -0.63587
H          3.50707       -2.91179       -1.58912
H          1.12629       -2.17177       -1.33590
