40
Au_2.70_4.log	Energy: -2268716.6595254
P          2.41505        1.08050        0.34271
C          2.56993        0.90622        2.14663
C          3.84328        0.28020       -0.45047
C          2.55997        2.85840       -0.02369
Au         0.40802        0.08240       -0.35911
Br         1.36197       -2.11556        0.53634
C         -0.26662        1.92629       -0.99073
C         -1.15766        2.64322       -0.30975
N         -1.58228       -0.83774       -0.99759
C         -1.79172       -0.46049       -2.42149
C         -1.59104       -2.33310       -0.92422
C         -2.58085       -0.28693       -0.06889
C         -3.68902        0.44141       -0.51046
C         -4.59466        0.96336        0.42203
C         -4.40180        0.76564        1.78916
C         -3.29292        0.03236        2.22845
C         -2.38758       -0.49367        1.30744
H          3.51566        1.36613        2.47393
H          2.55165       -0.16220        2.40094
H          1.72539        1.41355        2.63550
H          4.76623        0.76051       -0.08890
H          3.77053        0.40051       -1.54131
H          3.84071       -0.78923       -0.20142
H          3.53264        3.21227        0.35324
H          1.74395        3.40979        0.46117
H          2.50719        3.02689       -1.10821
H          0.16485        2.27489       -1.93776
H         -1.59110        2.31460        0.64020
H         -1.51570        3.60312       -0.70293
H         -0.95442       -0.85689       -3.01013
H         -1.82584        0.62799       -2.52895
H         -2.72698       -0.90020       -2.80163
H         -0.79590       -2.73164       -1.56523
H         -2.57464       -2.69296       -1.26535
H         -1.41016       -2.67232        0.09846
H         -3.86837        0.62031       -1.56884
H         -5.45734        1.53067        0.06554
H         -5.11090        1.17680        2.51074
H         -3.13135       -0.13507        3.29568
H         -1.52416       -1.06277        1.66144
