37
Au_2.38_4.log	Energy: -2230953.4888210
P         -2.61009        0.28908       -0.00084
C         -3.30083       -0.55110       -1.46375
C         -3.19639       -0.62342        1.46433
C         -3.38032        1.94154        0.06666
Au        -0.21526        0.27902       -0.03381
Br        -0.25908       -2.27070       -0.21405
C         -0.11856        2.33421        0.12918
C          0.41044        2.98129        1.16647
C          1.86890        0.19061       -0.01730
N          2.65779        0.43908       -1.05847
C          2.27548        0.98078       -2.34702
C          4.08006        0.31269       -0.69456
C          4.00620       -0.33480        0.69854
N          2.58330       -0.17027        1.04819
C          2.06423       -0.72842        2.28524
H         -4.39775       -0.60213       -1.38515
H         -2.87513       -1.56321       -1.51704
H         -3.02371        0.00302       -2.37261
H         -4.29583       -0.67791        1.46308
H         -2.85480       -0.11187        2.37622
H         -2.76569       -1.63465        1.43452
H         -4.47490        1.84115        0.12725
H         -3.11999        2.51214       -0.83663
H         -3.00793        2.48657        0.94559
H         -0.55416        2.87828       -0.71833
H          0.86106        2.47119        2.02380
H          0.41002        4.07781        1.19831
H          1.18618        0.93490       -2.46642
H          2.73890        0.39031       -3.15212
H          2.60352        2.02980       -2.44188
H          4.54395        1.31412       -0.67541
H          4.61631       -0.30172       -1.43259
H          4.64967        0.15703        1.44242
H          4.25596       -1.40966        0.67929
H          2.74942       -0.48041        3.10838
H          1.95703       -1.82306        2.20989
H          1.07983       -0.29786        2.50985
