47
Au_2.34_4.log	Energy: -2328929.3951877
P         -2.90267        0.03574        0.30502
C         -3.57047        1.47486       -0.59348
C         -3.51865       -1.45346       -0.54776
C         -3.67553        0.04984        1.95768
Au        -0.50764        0.03850        0.29230
Br        -0.56296        0.10115       -2.26880
C         -0.42017       -0.01686        2.35210
C         -0.14730       -1.10627        3.06743
C          1.57174        0.01381        0.22165
N          2.39025        1.08487        0.26018
C          1.94504        2.49734        0.34183
C          2.77789        3.27294        1.36021
C          1.94146        3.12351       -1.05326
C          3.70301        0.67266        0.09405
C          3.67893       -0.68273       -0.03494
N          2.35201       -1.07258        0.05175
C          1.86909       -2.46480       -0.10765
C          2.03935       -2.91463       -1.55846
C          2.54286       -3.38698        0.90724
H         -4.66873        1.41461       -0.63902
H         -3.14688        1.47800       -1.60779
H         -3.27517        2.40070       -0.07822
H         -4.61842       -1.43829       -0.59238
H         -3.18552       -2.35073       -0.00573
H         -3.09739       -1.46822       -1.56322
H         -4.77135        0.01653        1.85844
H         -3.38626        0.96480        2.49470
H         -3.32604       -0.81688        2.53580
H         -0.62082        0.94883        2.83373
H          0.06734       -2.08068        2.61729
H         -0.12763       -1.06283        4.16330
H          0.90935        2.44280        0.71094
H          3.81712        3.40650        1.02156
H          2.78858        2.76789        2.33783
H          2.34851        4.27679        1.49268
H          2.96245        3.16811       -1.46446
H          1.55222        4.15134       -1.00057
H          1.31018        2.54177       -1.74180
H          4.53828        1.36567        0.08291
H          4.48910       -1.39108       -0.17819
H          0.79331       -2.41589        0.11992
H          3.10415       -2.95197       -1.83814
H          1.51610       -2.22808       -2.24027
H          1.62148       -3.92427       -1.68685
H          3.62011       -3.49380        0.70546
H          2.09675       -4.39054        0.84605
H          2.41740       -3.01040        1.93367
