63
Au_2.13_4.log	Energy: -2763376.6105648
P          3.73649       -0.80412       -0.17693
C          4.47159        0.12003       -1.56746
C          4.53675       -0.20165        1.34727
C          4.27459       -2.53502       -0.39029
Au         1.34597       -0.42715       -0.07881
Br         1.89263        2.07095        0.12399
C          0.95693       -2.45016       -0.14221
C          1.13013       -3.26586        0.89613
P         -1.05294       -0.00112       -0.00330
C         -1.44015        1.50979       -0.93318
C         -0.81800        1.74728       -2.17058
C         -1.14661        2.87819       -2.91242
C         -2.08653        3.81113       -2.43744
C         -2.40120        5.05429       -3.22731
C         -2.69208        3.56584       -1.19521
C         -2.37762        2.43122       -0.44524
C         -2.04300       -1.34924       -0.72237
C         -2.22470       -2.54983       -0.00790
C         -2.95305       -3.59600       -0.56686
C         -3.51204       -3.49213       -1.85427
C         -4.27517       -4.64415       -2.45288
C         -3.32306       -2.29282       -2.55739
C         -2.60220       -1.23166       -2.00519
C         -1.58255        0.22676        1.72073
C         -0.72305        0.85584        2.63985
C         -1.15182        1.09726        3.94364
C         -2.43841        0.72580        4.37178
C         -2.87666        0.96151        5.79297
C         -3.29072        0.10983        3.44057
C         -2.87641       -0.13977        2.13201
H          5.56415       -0.01718       -1.56898
H          4.21935        1.18331       -1.45386
H          4.05473       -0.25062       -2.51547
H          5.62940       -0.31294        1.26924
H          4.17019       -0.78068        2.20777
H          4.26879        0.85566        1.48256
H          5.37362       -2.57204       -0.44721
H          3.84236       -2.94585       -1.31376
H          3.92329       -3.14290        0.45404
H          0.53863       -2.80213       -1.09297
H          1.52222       -2.93109        1.86237
H          0.86429       -4.32750        0.82033
H         -0.06594        1.05240       -2.55326
H         -0.65606        3.05043       -3.87402
H         -2.41765        4.85121       -4.30901
H         -1.63083        5.82531       -3.05298
H         -3.37097        5.48569       -2.93970
H         -3.42364        4.27712       -0.80326
H         -2.86270        2.27075        0.51968
H         -1.80370       -2.66295        0.99199
H         -3.09478       -4.51523        0.00807
H         -4.96941       -5.08663       -1.72147
H         -3.58396       -5.44541       -2.76610
H         -4.85287       -4.33778       -3.33656
H         -3.75703       -2.17843       -3.55402
H         -2.49272       -0.30815       -2.57607
H          0.27196        1.18449        2.33242
H         -0.47362        1.59171        4.64411
H         -2.46307        1.90003        6.19213
H         -2.52003        0.14560        6.44543
H         -3.97224        0.99851        5.88129
H         -4.30094       -0.17802        3.74317
H         -3.56722       -0.61547        1.43348
