48
Au_2.20_4.log	Energy: -2592425.5485131
P         -3.25010       -0.16435       -0.44867
C         -3.46519       -1.68042       -1.44062
C         -4.12043       -0.43354        1.13123
C         -4.16442        1.14871       -1.32459
Au        -0.88325        0.22210       -0.07487
Br        -0.80215       -2.06531        1.09405
C         -0.92918        2.04154       -1.04952
C         -1.48450        3.14990       -0.56436
P          1.46937        0.50936        0.23644
O          1.95718        2.01697       -0.01733
C          1.71750        3.08699        0.93881
C          2.05321        4.39508        0.26160
O          1.91853        0.23476        1.75202
C          2.38963       -1.01123        2.34502
C          3.53316       -0.68531        3.27906
C          2.46814       -0.44224       -0.92174
C          2.02680       -1.69620       -1.38184
C          2.83556       -2.43352       -2.24939
C          4.07174       -1.92409       -2.65996
C          4.50777       -0.67405       -2.20433
C          3.71190        0.07269       -1.33563
H         -4.53712       -1.89732       -1.56723
H         -2.96838       -2.51196       -0.92153
H         -3.00076       -1.54163       -2.42809
H         -5.17345       -0.69183        0.93921
H         -4.07304        0.48172        1.73946
H         -3.62189       -1.25046        1.67162
H         -5.21142        0.83572       -1.45971
H         -3.70220        1.33372       -2.30433
H         -4.12980        2.08156       -0.74562
H         -0.40649        2.03418       -2.01390
H         -1.99535        3.19422        0.40311
H         -1.44134        4.08650       -1.13388
H          2.34704        2.89947        1.82202
H          0.66053        3.05583        1.25116
H          3.10164        4.40455       -0.07203
H          1.90674        5.22703        0.96753
H          1.40438        4.55697       -0.61168
H          2.70140       -1.69762        1.54192
H          1.53308       -1.46158        2.86484
H          4.37921       -0.24618        2.72881
H          3.87946       -1.60718        3.77195
H          3.21257        0.02284        4.05782
H          1.06932       -2.10533       -1.05148
H          2.49856       -3.40990       -2.60432
H          4.69998       -2.50338       -3.34086
H          5.47195       -0.27736       -2.53037
H          4.04252        1.05266       -0.98774
