57
Au_2.46_4.log	Energy: -2521063.6174264
P         -3.56134        0.63069        0.21965
C         -3.61163        2.35400       -0.37611
C         -4.51058       -0.36862       -0.97457
C         -4.50593        0.59972        1.77959
Au        -1.29455       -0.13505        0.34480
Br        -1.07815        0.31783       -2.17154
C         -1.41875       -0.58283        2.35339
C         -1.36885        0.30253        3.34657
C          0.69247       -0.77636        0.39575
N          1.14568       -1.96505       -0.05535
C          0.28955       -3.01714       -0.65506
C          0.63053       -3.22207       -2.13104
C          0.32004       -4.29397        0.18619
C          2.53944       -2.01487        0.09350
C          2.91606       -0.78610        0.66401
C          4.24805       -0.47043        0.94776
C          5.19965       -1.44270        0.64812
C          4.83000       -2.68026        0.08221
C          3.50143       -2.98868       -0.20627
N          1.74032       -0.05641        0.84278
C          1.70034        1.30189        1.39009
C          2.36959        2.32261        0.49278
C          2.06296        2.37423       -0.87503
C          2.66491        3.33334       -1.69209
C          3.57352        4.25014       -1.15099
C          3.88017        4.20340        0.21162
C          3.28195        3.23978        1.03019
H         -4.65694        2.68209       -0.48451
H         -3.09370        2.40466       -1.34448
H         -3.09543        3.00835        0.34186
H         -5.52667        0.04116       -1.08191
H         -4.57086       -1.40834       -0.62068
H         -3.98708       -0.34538       -1.94068
H         -5.52469        0.97571        1.59882
H         -4.00651        1.22725        2.53038
H         -4.55316       -0.42806        2.16643
H         -1.49167       -1.66005        2.54860
H         -1.28415        1.38261        3.18700
H         -1.41463       -0.03005        4.39086
H         -0.72812       -2.60215       -0.60733
H          1.64428       -3.62356       -2.27058
H          0.54634       -2.27082       -2.67590
H         -0.07885       -3.93796       -2.57233
H          1.30744       -4.77666        0.17446
H         -0.40761       -5.01431       -0.21618
H          0.05541       -4.08311        1.23377
H          4.52642        0.49688        1.36591
H          6.25353       -1.24082        0.85001
H          5.60476       -3.41670       -0.14097
H          3.23754       -3.94784       -0.64800
H          2.17623        1.28005        2.38217
H          0.64184        1.54956        1.54910
H          1.35326        1.66421       -1.30747
H          2.42179        3.36530       -2.75684
H          4.04413        4.99892       -1.79252
H          4.59108        4.91419        0.63947
H          3.52925        3.20413        2.09555
