67
Au_2.37_4.log	Energy: -2619029.8543680
P         -0.14008        3.14773        0.23147
C          1.55141        3.75374        0.54466
C         -0.68224        3.84775       -1.36252
C         -1.19806        3.92135        1.50109
Au        -0.14492        0.75522        0.17245
Br         1.46714        0.94221       -1.81794
C         -1.57176        0.72441        1.66115
C         -1.36690        0.61063        2.97075
C         -0.10164       -1.33347        0.11192
N          0.98004       -2.14132        0.21838
C          2.36062       -1.72710        0.31420
C          2.83462       -1.14364        1.49717
C          1.95812       -0.89970        2.69971
C          4.18151       -0.75142        1.53505
C          5.03734       -0.93215        0.44522
C          6.48418       -0.51328        0.50027
C          4.51784       -1.52450       -0.71711
C          3.18623       -1.92952       -0.81204
C          2.64897       -2.52851       -2.08731
C          0.58694       -3.47142        0.14024
C         -0.76212       -3.47896       -0.03010
N         -1.16937       -2.15195       -0.04050
C         -2.53171       -1.71190       -0.20507
C         -3.42237       -1.86654        0.87387
C         -2.99284       -2.52974        2.15744
C         -4.72134       -1.37279        0.71368
C         -5.13946       -0.75289       -0.47405
C         -6.55681       -0.26193       -0.62595
C         -4.22258       -0.64490       -1.52866
C         -2.91017       -1.12658       -1.42659
C         -1.95686       -1.02644       -2.59247
H          1.56708        4.85439        0.53110
H          2.21381        3.35062       -0.23408
H          1.89067        3.39350        1.52710
H         -0.61812        4.94626       -1.33083
H         -1.72213        3.54608       -1.55677
H         -0.03754        3.44818       -2.15742
H         -1.10320        5.01638        1.43910
H         -0.89674        3.57436        2.49872
H         -2.24633        3.63370        1.33865
H         -2.58326        0.81698        1.24714
H         -0.37758        0.50200        3.42163
H         -2.21931        0.61553        3.66124
H          1.05048       -1.51807        2.70287
H          1.63795        0.15585        2.73036
H          2.50956       -1.09414        3.63117
H          4.56926       -0.29785        2.45156
H          6.72853       -0.00084        1.44175
H          6.73007        0.16437       -0.33333
H          7.14885       -1.38824        0.40861
H          5.17108       -1.66121       -1.58318
H          3.36222       -2.39229       -2.91126
H          1.70255       -2.04840       -2.37897
H          2.46100       -3.61010       -1.98789
H          1.30670       -4.28132        0.21057
H         -1.46823       -4.29517       -0.14983
H         -2.87102       -3.61756        2.02683
H         -3.73788       -2.37426        2.94970
H         -2.02908       -2.13283        2.51065
H         -5.42804       -1.47328        1.54198
H         -6.95983        0.11465        0.32638
H         -7.21548       -1.08420       -0.95461
H         -6.63344        0.53838       -1.37670
H         -4.54122       -0.18674       -2.46902
H         -2.50791       -0.90321       -3.53494
H         -1.32723       -1.92487       -2.68057
H         -1.26639       -0.17258       -2.49787
