43
Au_2.39_4.log	Energy: -2280320.1544860
P         -2.74726        0.28783        0.17703
C         -3.46695        0.31034       -1.49783
C         -3.35128       -1.22614        0.99413
C         -3.47976        1.69424        1.07986
Au        -0.34976        0.24956        0.10774
Br        -0.47829       -1.87203       -1.31370
C         -0.21505        1.98043        1.22399
C          0.40746        2.09284        2.39644
C          1.73089        0.11800        0.05677
N          2.49668        0.66955       -0.87867
C          2.05367        1.54081       -1.96404
C          2.12604        3.02576       -1.61427
C          3.92701        0.45628       -0.59419
C          3.88828       -0.54155        0.57865
N          2.46109       -0.54184        0.95413
C          1.96276       -1.41636        2.01515
C          1.95968       -2.89666        1.63767
H         -4.56461        0.25199       -1.43630
H         -3.07070       -0.54874       -2.05778
H         -3.17748        1.23877       -2.01172
H         -4.45173       -1.25101        0.97980
H         -2.99720       -1.24871        2.03531
H         -2.94350       -2.09346        0.45534
H         -4.57418        1.58274        1.11937
H         -3.23226        2.63675        0.57029
H         -3.07321        1.72922        2.10061
H         -0.72028        2.84209        0.77045
H          0.93344        1.26371        2.87867
H          0.41292        3.04932        2.93335
H          1.02868        1.24364       -2.23183
H          2.68024        1.31251       -2.84089
H          1.48870        3.25347       -0.74635
H          1.78557        3.63136       -2.46780
H          3.15484        3.33689       -1.37537
H          4.40128        1.41282       -0.31956
H          4.44004        0.06012       -1.48297
H          4.50964       -0.23343        1.43263
H          4.19547       -1.55527        0.27594
H          0.94433       -1.08475        2.26689
H          2.58475       -1.23768        2.90775
H          1.32439       -3.07002        0.75628
H          1.56637       -3.49066        2.47661
H          2.97407       -3.26537        1.42145
