54
Au_2.9_4.log	Energy: -2689324.4196528
P         -3.52268       -0.37482       -0.33354
C         -4.23265        0.05473        1.28934
C         -4.23126        0.77227       -1.56043
C         -4.16171       -2.03119       -0.75558
Au        -1.11845       -0.20243       -0.22844
Br        -1.45476        2.28096        0.25531
C         -0.95402       -2.24752       -0.50518
C         -0.70888       -3.11257        0.47709
P          1.29453       -0.08089        0.01437
C          1.96268        1.60075        0.20307
C          2.59222        2.03778        1.37819
C          3.10349        3.33748        1.44680
C          2.98743        4.19847        0.35299
C          2.36009        3.76181       -0.82031
C          1.84581        2.46951       -0.89693
C          1.64021       -1.00963        1.54130
C          2.46016       -2.14680        1.56899
C          2.61868       -2.85814        2.76264
C          1.95884       -2.44505        3.92348
C          1.13168       -1.31531        3.89569
C          0.96634       -0.60019        2.70883
C          2.22188       -0.79393       -1.38051
C          1.58079       -1.28597       -2.52710
C          2.33706       -1.77801       -3.59479
C          3.73234       -1.78277       -3.52234
C          4.37740       -1.28050       -2.38575
C          3.62900       -0.77777       -1.32138
H         -5.33185        0.00985        1.24441
H         -3.90147        1.06882        1.55365
H         -3.86554       -0.65488        2.04534
H         -5.33029        0.70629       -1.53861
H         -3.86766        0.50687       -2.56404
H         -3.90298        1.79221       -1.31720
H         -5.26264       -2.01377       -0.75421
H         -3.79683       -2.76485       -0.02388
H         -3.80441       -2.32469       -1.75314
H         -1.14278       -2.58949       -1.52985
H         -0.51893       -2.80852        1.51080
H         -0.67483       -4.18948        0.27092
H          2.69754        1.37356        2.23696
H          3.59708        3.67433        2.36121
H          3.38664        5.21368        0.41256
H          2.26606        4.43415       -1.67591
H          1.34962        2.13832       -1.81240
H          2.96749       -2.48707        0.66495
H          3.25934       -3.74274        2.78177
H          2.08595       -3.00544        4.85266
H          0.61346       -0.99123        4.80110
H          0.31342        0.27776        2.68875
H          0.49315       -1.27493       -2.60014
H          1.83268       -2.15480       -4.48740
H          4.32120       -2.16928       -4.35746
H          5.46843       -1.27101       -2.33275
H          4.13934       -0.36384       -0.44822
